/*--------------------------------*- C++ -*----------------------------------*\
| =========                 |                                                 |
| \\      /  F ield         | OpenFOAM: The Open Source CFD Toolbox           |
|  \\    /   O peration     | Version:  v2006                                 |
|   \\  /    A nd           | Website:  www.openfoam.com                      |
|    \\/     M anipulation  |                                                 |
\*---------------------------------------------------------------------------*/
FoamFile
{
    version     2.0;
    format      ascii;
    class       volScalarField;
    object      k;
}
// * * * * * * * * * * * * * * * * * * * * * * * * * * * * * * * * * * * * * //

dimensions      [0 2 -2 0 0 0 0];

internalField   uniform 0.02;;

boundaryField
{
    inlet
    {
        type            turbulentIntensityKineticEnergyInlet;
	    intensity       0.05;
        value           uniform 0.02;
    }

    outlet
    {
        type            inletOutlet;
        inletValue      uniform 0.02;
        value           uniform 0.02;
    }
    
    walls
    {
	    type            kqRWallFunction;
        value           uniform 0;
    }
    
    rotatingWall
    {
	    type            kqRWallFunction;
        value           uniform 0;
    }

    "ami.*"
    {
        type            cyclicAMI;
    }

    #includeEtc "caseDicts/setConstraintTypes"
}

// ************************************************************************* //
